Circuit: * C:\Users\elisa\Documents\portable-oscilloscope-pi3\hardware\simulação\Draft3.asc

Limiting rise time of source v4 to 2.5e-007
Limiting fall time of source v4 to 2.5e-007
Early termination of direct N-R iteration.
Direct Newton iteration failed to find .op point.  (Use ".option noopiter" to skip.)
Starting Gmin stepping
Gmin = 10
vernier = 0.5
vernier = 0.25
vernier = 0.125
Gmin = 5.5165
vernier = 0.0625
vernier = 0.03125
vernier = 0.015625
vernier = 0.0078125
Gmin = 5.49501
vernier = 0.00390625
vernier = 0.00195313
vernier = 0.000976563
vernier = 0.000488281
Gmin = 5.50104
Gmin = 0
Gmin stepping succeeded in finding the operating point.


Date: Tue Nov 04 10:35:02 2025
Total elapsed time: 14.029 seconds.

tnom = 27
temp = 27
method = modified trap
totiter = 778674
traniter = 777138
tranpoints = 364631
accept = 307148
rejected = 57483
matrix size = 85
fillins = 432
solver = Normal
Thread vector: 12.1/4.0[2] 1.5/1.6[1] 2.3/1.7[2] 0.5/1.3[1]  2592/500
Matrix Compiler1: 40.93 KB object code size  5.0/3.2/[1.3]
Matrix Compiler2: 14.43 KB object code size  2.9/2.4/[0.8]

